# generated using pymatgen
data_Y2MgSi2
_symmetry_space_group_name_H-M   'P 1'
_cell_length_a   7.17292700
_cell_length_b   7.17292700
_cell_length_c   4.22878400
_cell_angle_alpha   90.00000000
_cell_angle_beta   90.00000000
_cell_angle_gamma   90.00000000
_symmetry_Int_Tables_number   1
_chemical_formula_structural   Y2MgSi2
_chemical_formula_sum   'Y4 Mg2 Si4'
_cell_volume   217.57466552
_cell_formula_units_Z   2
loop_
 _symmetry_equiv_pos_site_id
 _symmetry_equiv_pos_as_xyz
  1  'x, y, z'
loop_
 _atom_site_type_symbol
 _atom_site_label
 _atom_site_symmetry_multiplicity
 _atom_site_fract_x
 _atom_site_fract_y
 _atom_site_fract_z
 _atom_site_occupancy
  Y  Y0  1  0.67902400  0.17902400  0.50000000  1
  Y  Y1  1  0.32097600  0.82097600  0.50000000  1
  Y  Y2  1  0.17902400  0.32097600  0.50000000  1
  Y  Y3  1  0.82097600  0.67902400  0.50000000  1
  Mg  Mg4  1  0.00000000  0.00000000  0.00000000  1
  Mg  Mg5  1  0.50000000  0.50000000  0.00000000  1
  Si  Si6  1  0.11778700  0.61778700  0.00000000  1
  Si  Si7  1  0.88221300  0.38221300  0.00000000  1
  Si  Si8  1  0.61778700  0.88221300  0.00000000  1
  Si  Si9  1  0.38221300  0.11778700  0.00000000  1
