# generated using pymatgen
data_EuSi3Ni
_symmetry_space_group_name_H-M   'P 1'
_cell_length_a   5.65025517
_cell_length_b   5.65025517
_cell_length_c   5.65025517
_cell_angle_alpha   137.07147505
_cell_angle_beta   137.07147505
_cell_angle_gamma   62.32809632
_symmetry_Int_Tables_number   1
_chemical_formula_structural   EuSi3Ni
_chemical_formula_sum   'Eu1 Si3 Ni1'
_cell_volume   82.67123692
_cell_formula_units_Z   1
loop_
 _symmetry_equiv_pos_site_id
 _symmetry_equiv_pos_as_xyz
  1  'x, y, z'
loop_
 _atom_site_type_symbol
 _atom_site_label
 _atom_site_symmetry_multiplicity
 _atom_site_fract_x
 _atom_site_fract_y
 _atom_site_fract_z
 _atom_site_occupancy
  Eu  Eu0  1  0.98709800  0.98709800  0.00000000  1
  Si  Si1  1  0.74084000  0.24084000  0.50000000  1
  Si  Si2  1  0.24084000  0.74084000  0.50000000  1
  Si  Si3  1  0.39645700  0.39645700  0.00000000  1
  Ni  Ni4  1  0.63476500  0.63476500  0.00000000  1
