# generated using pymatgen
data_LaSi2Ni
_symmetry_space_group_name_H-M   'P 1'
_cell_length_a   8.57350995
_cell_length_b   8.57350995
_cell_length_c   4.10152500
_cell_angle_alpha   90.00000000
_cell_angle_beta   90.00000000
_cell_angle_gamma   151.37419908
_symmetry_Int_Tables_number   1
_chemical_formula_structural   LaSi2Ni
_chemical_formula_sum   'La2 Si4 Ni2'
_cell_volume   144.43658776
_cell_formula_units_Z   2
loop_
 _symmetry_equiv_pos_site_id
 _symmetry_equiv_pos_as_xyz
  1  'x, y, z'
loop_
 _atom_site_type_symbol
 _atom_site_label
 _atom_site_symmetry_multiplicity
 _atom_site_fract_x
 _atom_site_fract_y
 _atom_site_fract_z
 _atom_site_occupancy
  La  La0  1  0.89235100  0.10764900  0.75000000  1
  La  La1  1  0.10764900  0.89235100  0.25000000  1
  Si  Si2  1  0.54105600  0.45894400  0.75000000  1
  Si  Si3  1  0.45894400  0.54105600  0.25000000  1
  Si  Si4  1  0.24986100  0.75013900  0.75000000  1
  Si  Si5  1  0.75013900  0.24986100  0.25000000  1
  Ni  Ni6  1  0.68207700  0.31792300  0.75000000  1
  Ni  Ni7  1  0.31792300  0.68207700  0.25000000  1
