# generated using pymatgen
data_Er2InCu2
_symmetry_space_group_name_H-M   'P 1'
_cell_length_a   7.61023200
_cell_length_b   7.61023200
_cell_length_c   3.59008700
_cell_angle_alpha   90.00000000
_cell_angle_beta   90.00000000
_cell_angle_gamma   90.00000000
_symmetry_Int_Tables_number   1
_chemical_formula_structural   Er2InCu2
_chemical_formula_sum   'Er4 In2 Cu4'
_cell_volume   207.92215429
_cell_formula_units_Z   2
loop_
 _symmetry_equiv_pos_site_id
 _symmetry_equiv_pos_as_xyz
  1  'x, y, z'
loop_
 _atom_site_type_symbol
 _atom_site_label
 _atom_site_symmetry_multiplicity
 _atom_site_fract_x
 _atom_site_fract_y
 _atom_site_fract_z
 _atom_site_occupancy
  Er  Er0  1  0.67425500  0.17425500  0.50000000  1
  Er  Er1  1  0.32574500  0.82574500  0.50000000  1
  Er  Er2  1  0.17425500  0.32574500  0.50000000  1
  Er  Er3  1  0.82574500  0.67425500  0.50000000  1
  In  In4  1  0.50000000  0.50000000  0.00000000  1
  In  In5  1  0.00000000  0.00000000  0.00000000  1
  Cu  Cu6  1  0.11848600  0.61848600  0.00000000  1
  Cu  Cu7  1  0.88151400  0.38151400  0.00000000  1
  Cu  Cu8  1  0.61848600  0.88151400  0.00000000  1
  Cu  Cu9  1  0.38151400  0.11848600  0.00000000  1
