# generated using pymatgen
data_Dy6Al43Cr4
_symmetry_space_group_name_H-M   'P 1'
_cell_length_a   10.97020370
_cell_length_b   10.97020370
_cell_length_c   17.52616100
_cell_angle_alpha   90.00000000
_cell_angle_beta   90.00000000
_cell_angle_gamma   119.99999818
_symmetry_Int_Tables_number   1
_chemical_formula_structural   Dy6Al43Cr4
_chemical_formula_sum   'Dy12 Al86 Cr8'
_cell_volume   1826.61416046
_cell_formula_units_Z   2
loop_
 _symmetry_equiv_pos_site_id
 _symmetry_equiv_pos_as_xyz
  1  'x, y, z'
loop_
 _atom_site_type_symbol
 _atom_site_label
 _atom_site_symmetry_multiplicity
 _atom_site_fract_x
 _atom_site_fract_y
 _atom_site_fract_z
 _atom_site_occupancy
  Dy  Dy0  1  0.47042400  0.47042400  0.90470600  1
  Dy  Dy1  1  0.52957600  0.00000000  0.90470600  1
  Dy  Dy2  1  0.00000000  0.52957600  0.90470600  1
  Dy  Dy3  1  0.52957600  0.52957600  0.09529400  1
  Dy  Dy4  1  0.47042400  0.00000000  0.09529400  1
  Dy  Dy5  1  0.00000000  0.47042400  0.09529400  1
  Dy  Dy6  1  0.52957600  0.52957600  0.40470600  1
  Dy  Dy7  1  0.47042400  0.00000000  0.40470600  1
  Dy  Dy8  1  0.00000000  0.47042400  0.40470600  1
  Dy  Dy9  1  0.47042400  0.47042400  0.59529400  1
  Dy  Dy10  1  0.52957600  0.00000000  0.59529400  1
  Dy  Dy11  1  0.00000000  0.52957600  0.59529400  1
  Al  Al12  1  0.84005600  0.23115600  0.83481600  1
  Al  Al13  1  0.76884400  0.60890000  0.83481600  1
  Al  Al14  1  0.39110000  0.15994400  0.83481600  1
  Al  Al15  1  0.23115600  0.84005600  0.83481600  1
  Al  Al16  1  0.60890000  0.76884400  0.83481600  1
  Al  Al17  1  0.15994400  0.39110000  0.83481600  1
  Al  Al18  1  0.15994400  0.76884400  0.16518400  1
  Al  Al19  1  0.23115600  0.39110000  0.16518400  1
  Al  Al20  1  0.60890000  0.84005600  0.16518400  1
  Al  Al21  1  0.76884400  0.15994400  0.16518400  1
  Al  Al22  1  0.39110000  0.23115600  0.16518400  1
  Al  Al23  1  0.84005600  0.60890000  0.16518400  1
  Al  Al24  1  0.15994400  0.76884400  0.33481600  1
  Al  Al25  1  0.23115600  0.39110000  0.33481600  1
  Al  Al26  1  0.60890000  0.84005600  0.33481600  1
  Al  Al27  1  0.76884400  0.15994400  0.33481600  1
  Al  Al28  1  0.39110000  0.23115600  0.33481600  1
  Al  Al29  1  0.84005600  0.60890000  0.33481600  1
  Al  Al30  1  0.84005600  0.23115600  0.66518400  1
  Al  Al31  1  0.76884400  0.60890000  0.66518400  1
  Al  Al32  1  0.39110000  0.15994400  0.66518400  1
  Al  Al33  1  0.23115600  0.84005600  0.66518400  1
  Al  Al34  1  0.60890000  0.76884400  0.66518400  1
  Al  Al35  1  0.15994400  0.39110000  0.66518400  1
  Al  Al36  1  0.84544000  0.84544000  0.38426500  1
  Al  Al37  1  0.15456000  0.00000000  0.38426500  1
  Al  Al38  1  0.00000000  0.15456000  0.38426500  1
  Al  Al39  1  0.15456000  0.15456000  0.61573500  1
  Al  Al40  1  0.84544000  0.00000000  0.61573500  1
  Al  Al41  1  0.00000000  0.84544000  0.61573500  1
  Al  Al42  1  0.15456000  0.15456000  0.88426500  1
  Al  Al43  1  0.84544000  0.00000000  0.88426500  1
  Al  Al44  1  0.00000000  0.84544000  0.88426500  1
  Al  Al45  1  0.84544000  0.84544000  0.11573500  1
  Al  Al46  1  0.15456000  0.00000000  0.11573500  1
  Al  Al47  1  0.00000000  0.15456000  0.11573500  1
  Al  Al48  1  0.74869000  0.74869000  0.96928500  1
  Al  Al49  1  0.25131000  0.00000000  0.96928500  1
  Al  Al50  1  0.00000000  0.25131000  0.96928500  1
  Al  Al51  1  0.25131000  0.25131000  0.03071500  1
  Al  Al52  1  0.74869000  0.00000000  0.03071500  1
  Al  Al53  1  0.00000000  0.74869000  0.03071500  1
  Al  Al54  1  0.25131000  0.25131000  0.46928500  1
  Al  Al55  1  0.74869000  0.00000000  0.46928500  1
  Al  Al56  1  0.00000000  0.74869000  0.46928500  1
  Al  Al57  1  0.74869000  0.74869000  0.53071500  1
  Al  Al58  1  0.25131000  0.00000000  0.53071500  1
  Al  Al59  1  0.00000000  0.25131000  0.53071500  1
  Al  Al60  1  0.85585800  0.45174500  0.75000000  1
  Al  Al61  1  0.54825500  0.40411300  0.75000000  1
  Al  Al62  1  0.59588700  0.14414200  0.75000000  1
  Al  Al63  1  0.45174500  0.85585800  0.75000000  1
  Al  Al64  1  0.40411300  0.54825500  0.75000000  1
  Al  Al65  1  0.14414200  0.59588700  0.75000000  1
  Al  Al66  1  0.14414200  0.54825500  0.25000000  1
  Al  Al67  1  0.45174500  0.59588700  0.25000000  1
  Al  Al68  1  0.40411300  0.85585800  0.25000000  1
  Al  Al69  1  0.54825500  0.14414200  0.25000000  1
  Al  Al70  1  0.59588700  0.45174500  0.25000000  1
  Al  Al71  1  0.85585800  0.40411300  0.25000000  1
  Al  Al72  1  0.75294700  0.24705300  0.00000000  1
  Al  Al73  1  0.75294700  0.50589400  0.00000000  1
  Al  Al74  1  0.49410600  0.24705300  0.00000000  1
  Al  Al75  1  0.24705300  0.75294700  0.00000000  1
  Al  Al76  1  0.50589400  0.75294700  0.00000000  1
  Al  Al77  1  0.24705300  0.49410600  0.00000000  1
  Al  Al78  1  0.24705300  0.75294700  0.50000000  1
  Al  Al79  1  0.24705300  0.49410600  0.50000000  1
  Al  Al80  1  0.50589400  0.75294700  0.50000000  1
  Al  Al81  1  0.75294700  0.24705300  0.50000000  1
  Al  Al82  1  0.49410600  0.24705300  0.50000000  1
  Al  Al83  1  0.75294700  0.50589400  0.50000000  1
  Al  Al84  1  0.66666700  0.33333300  0.87248400  1
  Al  Al85  1  0.33333300  0.66666700  0.87248400  1
  Al  Al86  1  0.33333300  0.66666700  0.12751600  1
  Al  Al87  1  0.66666700  0.33333300  0.12751600  1
  Al  Al88  1  0.33333300  0.66666700  0.37248400  1
  Al  Al89  1  0.66666700  0.33333300  0.37248400  1
  Al  Al90  1  0.66666700  0.33333300  0.62751600  1
  Al  Al91  1  0.33333300  0.66666700  0.62751600  1
  Al  Al92  1  0.85495200  0.85495200  0.75000000  1
  Al  Al93  1  0.14504800  0.00000000  0.75000000  1
  Al  Al94  1  0.00000000  0.14504800  0.75000000  1
  Al  Al95  1  0.14504800  0.14504800  0.25000000  1
  Al  Al96  1  0.85495200  0.00000000  0.25000000  1
  Al  Al97  1  0.00000000  0.85495200  0.25000000  1
  Cr  Cr98  1  0.26975100  0.26975100  0.75000000  1
  Cr  Cr99  1  0.73024900  0.00000000  0.75000000  1
  Cr  Cr100  1  0.00000000  0.73024900  0.75000000  1
  Cr  Cr101  1  0.73024900  0.73024900  0.25000000  1
  Cr  Cr102  1  0.26975100  0.00000000  0.25000000  1
  Cr  Cr103  1  0.00000000  0.26975100  0.25000000  1
  Cr  Cr104  1  0.00000000  0.00000000  0.00000000  1
  Cr  Cr105  1  0.00000000  0.00000000  0.50000000  1
