# generated using pymatgen
data_Pr3Bi4Pt3
_symmetry_space_group_name_H-M   'P 1'
_cell_length_a   8.81897571
_cell_length_b   8.81897571
_cell_length_c   8.81897571
_cell_angle_alpha   109.47122063
_cell_angle_beta   109.47122063
_cell_angle_gamma   109.47122063
_symmetry_Int_Tables_number   1
_chemical_formula_structural   Pr3Bi4Pt3
_chemical_formula_sum   'Pr6 Bi8 Pt6'
_cell_volume   527.99832951
_cell_formula_units_Z   2
loop_
 _symmetry_equiv_pos_site_id
 _symmetry_equiv_pos_as_xyz
  1  'x, y, z'
loop_
 _atom_site_type_symbol
 _atom_site_label
 _atom_site_symmetry_multiplicity
 _atom_site_fract_x
 _atom_site_fract_y
 _atom_site_fract_z
 _atom_site_occupancy
  Pr  Pr0  1  0.12500000  0.87500000  0.25000000  1
  Pr  Pr1  1  0.37500000  0.62500000  0.75000000  1
  Pr  Pr2  1  0.87500000  0.25000000  0.12500000  1
  Pr  Pr3  1  0.62500000  0.75000000  0.37500000  1
  Pr  Pr4  1  0.25000000  0.12500000  0.87500000  1
  Pr  Pr5  1  0.75000000  0.37500000  0.62500000  1
  Bi  Bi6  1  0.32642200  0.32642200  0.32642200  1
  Bi  Bi7  1  0.17357800  0.50000000  0.00000000  1
  Bi  Bi8  1  0.00000000  0.17357800  0.50000000  1
  Bi  Bi9  1  0.82642200  0.82642200  0.82642200  1
  Bi  Bi10  1  0.50000000  0.00000000  0.17357800  1
  Bi  Bi11  1  0.67357800  0.50000000  0.00000000  1
  Bi  Bi12  1  0.50000000  0.00000000  0.67357800  1
  Bi  Bi13  1  0.00000000  0.67357800  0.50000000  1
  Pt  Pt14  1  0.62500000  0.37500000  0.25000000  1
  Pt  Pt15  1  0.87500000  0.12500000  0.75000000  1
  Pt  Pt16  1  0.37500000  0.25000000  0.62500000  1
  Pt  Pt17  1  0.12500000  0.75000000  0.87500000  1
  Pt  Pt18  1  0.25000000  0.62500000  0.37500000  1
  Pt  Pt19  1  0.75000000  0.87500000  0.12500000  1
