# generated using pymatgen
data_Ce3Mg2InAu3
_symmetry_space_group_name_H-M   'P 1'
_cell_length_a   7.70162662
_cell_length_b   7.70162662
_cell_length_c   4.25713200
_cell_angle_alpha   90.00000000
_cell_angle_beta   90.00000000
_cell_angle_gamma   119.26638819
_symmetry_Int_Tables_number   1
_chemical_formula_structural   Ce3Mg2InAu3
_chemical_formula_sum   'Ce3 Mg2 In1 Au3'
_cell_volume   220.28041949
_cell_formula_units_Z   1
loop_
 _symmetry_equiv_pos_site_id
 _symmetry_equiv_pos_as_xyz
  1  'x, y, z'
loop_
 _atom_site_type_symbol
 _atom_site_label
 _atom_site_symmetry_multiplicity
 _atom_site_fract_x
 _atom_site_fract_y
 _atom_site_fract_z
 _atom_site_occupancy
  Ce  Ce0  1  0.58354800  0.58354800  0.00000000  1
  Ce  Ce1  1  0.41327600  0.99949100  0.00000000  1
  Ce  Ce2  1  0.99949100  0.41327600  0.00000000  1
  Mg  Mg3  1  0.75687900  0.00042300  0.50000000  1
  Mg  Mg4  1  0.00042300  0.75687900  0.50000000  1
  In  In5  1  0.24751400  0.24751400  0.50000000  1
  Au  Au6  1  0.33569800  0.67383300  0.50000000  1
  Au  Au7  1  0.67383300  0.33569800  0.50000000  1
  Au  Au8  1  0.98923800  0.98923800  0.00000000  1
