# generated using pymatgen
data_UGa5Ru
_symmetry_space_group_name_H-M   'P 1'
_cell_length_a   4.32084500
_cell_length_b   4.32084500
_cell_length_c   6.72319100
_cell_angle_alpha   90.00000000
_cell_angle_beta   90.00000000
_cell_angle_gamma   90.00000000
_symmetry_Int_Tables_number   1
_chemical_formula_structural   UGa5Ru
_chemical_formula_sum   'U1 Ga5 Ru1'
_cell_volume   125.51996919
_cell_formula_units_Z   1
loop_
 _symmetry_equiv_pos_site_id
 _symmetry_equiv_pos_as_xyz
  1  'x, y, z'
loop_
 _atom_site_type_symbol
 _atom_site_label
 _atom_site_symmetry_multiplicity
 _atom_site_fract_x
 _atom_site_fract_y
 _atom_site_fract_z
 _atom_site_occupancy
  U  U0  1  0.00000000  0.00000000  0.00000000  1
  Ga  Ga1  1  0.50000000  0.50000000  0.00000000  1
  Ga  Ga2  1  0.50000000  0.00000000  0.69912300  1
  Ga  Ga3  1  0.00000000  0.50000000  0.69912300  1
  Ga  Ga4  1  0.50000000  0.00000000  0.30087700  1
  Ga  Ga5  1  0.00000000  0.50000000  0.30087700  1
  Ru  Ru6  1  0.00000000  0.00000000  0.50000000  1
