# generated using pymatgen
data_UGaFe
_symmetry_space_group_name_H-M   'P 1'
_cell_length_a   6.56270230
_cell_length_b   6.56270230
_cell_length_c   3.96890700
_cell_angle_alpha   90.00000000
_cell_angle_beta   90.00000000
_cell_angle_gamma   120.00000306
_symmetry_Int_Tables_number   1
_chemical_formula_structural   UGaFe
_chemical_formula_sum   'U3 Ga3 Fe3'
_cell_volume   148.03586629
_cell_formula_units_Z   3
loop_
 _symmetry_equiv_pos_site_id
 _symmetry_equiv_pos_as_xyz
  1  'x, y, z'
loop_
 _atom_site_type_symbol
 _atom_site_label
 _atom_site_symmetry_multiplicity
 _atom_site_fract_x
 _atom_site_fract_y
 _atom_site_fract_z
 _atom_site_occupancy
  U  U0  1  0.42180000  0.00000000  0.50000000  1
  U  U1  1  0.00000000  0.42180000  0.50000000  1
  U  U2  1  0.57820000  0.57820000  0.50000000  1
  Ga  Ga3  1  0.76161800  0.00000000  0.00000000  1
  Ga  Ga4  1  0.00000000  0.76161800  0.00000000  1
  Ga  Ga5  1  0.23838200  0.23838200  0.00000000  1
  Fe  Fe6  1  0.33333300  0.66666700  0.00000000  1
  Fe  Fe7  1  0.66666700  0.33333300  0.00000000  1
  Fe  Fe8  1  0.00000000  0.00000000  0.50000000  1
