# generated using pymatgen
data_Ce(P3Os)4
_symmetry_space_group_name_H-M   'P 1'
_cell_length_a   7.02829845
_cell_length_b   7.02829845
_cell_length_c   7.02829845
_cell_angle_alpha   109.47122063
_cell_angle_beta   109.47122063
_cell_angle_gamma   109.47122063
_symmetry_Int_Tables_number   1
_chemical_formula_structural   Ce(P3Os)4
_chemical_formula_sum   'Ce1 P12 Os4'
_cell_volume   267.25675684
_cell_formula_units_Z   1
loop_
 _symmetry_equiv_pos_site_id
 _symmetry_equiv_pos_as_xyz
  1  'x, y, z'
loop_
 _atom_site_type_symbol
 _atom_site_label
 _atom_site_symmetry_multiplicity
 _atom_site_fract_x
 _atom_site_fract_y
 _atom_site_fract_z
 _atom_site_occupancy
  Ce  Ce0  1  0.00000000  0.00000000  0.00000000  1
  P  P1  1  0.85684200  0.64488800  0.50173000  1
  P  P2  1  0.14315800  0.35511200  0.49827000  1
  P  P3  1  0.14315800  0.64488800  0.78804600  1
  P  P4  1  0.85684200  0.35511200  0.21195400  1
  P  P5  1  0.64488800  0.50173000  0.85684200  1
  P  P6  1  0.35511200  0.49827000  0.14315800  1
  P  P7  1  0.64488800  0.78804600  0.14315800  1
  P  P8  1  0.35511200  0.21195400  0.85684200  1
  P  P9  1  0.50173000  0.85684200  0.64488800  1
  P  P10  1  0.49827000  0.14315800  0.35511200  1
  P  P11  1  0.78804600  0.14315800  0.64488800  1
  P  P12  1  0.21195400  0.85684200  0.35511200  1
  Os  Os13  1  0.50000000  0.50000000  0.50000000  1
  Os  Os14  1  0.50000000  0.00000000  0.00000000  1
  Os  Os15  1  0.00000000  0.50000000  0.00000000  1
  Os  Os16  1  0.00000000  0.00000000  0.50000000  1
