# generated using pymatgen
data_Dy4MgIr
_symmetry_space_group_name_H-M   'P 1'
_cell_length_a   9.70685218
_cell_length_b   9.70685218
_cell_length_c   9.70685218
_cell_angle_alpha   60.00000000
_cell_angle_beta   60.00000000
_cell_angle_gamma   60.00000000
_symmetry_Int_Tables_number   1
_chemical_formula_structural   Dy4MgIr
_chemical_formula_sum   'Dy16 Mg4 Ir4'
_cell_volume   646.72589462
_cell_formula_units_Z   4
loop_
 _symmetry_equiv_pos_site_id
 _symmetry_equiv_pos_as_xyz
  1  'x, y, z'
loop_
 _atom_site_type_symbol
 _atom_site_label
 _atom_site_symmetry_multiplicity
 _atom_site_fract_x
 _atom_site_fract_y
 _atom_site_fract_z
 _atom_site_occupancy
  Dy  Dy0  1  0.34746400  0.34746400  0.34746400  1
  Dy  Dy1  1  0.34746400  0.34746400  0.95760700  1
  Dy  Dy2  1  0.34746400  0.95760700  0.34746400  1
  Dy  Dy3  1  0.95760700  0.34746400  0.34746400  1
  Dy  Dy4  1  0.81300600  0.18699400  0.18699400  1
  Dy  Dy5  1  0.18699400  0.81300600  0.81300600  1
  Dy  Dy6  1  0.18699400  0.81300600  0.18699400  1
  Dy  Dy7  1  0.81300600  0.18699400  0.81300600  1
  Dy  Dy8  1  0.18699400  0.18699400  0.81300600  1
  Dy  Dy9  1  0.81300600  0.81300600  0.18699400  1
  Dy  Dy10  1  0.93635500  0.56364500  0.56364500  1
  Dy  Dy11  1  0.56364500  0.93635500  0.93635500  1
  Dy  Dy12  1  0.56364500  0.93635500  0.56364500  1
  Dy  Dy13  1  0.93635500  0.56364500  0.93635500  1
  Dy  Dy14  1  0.56364500  0.56364500  0.93635500  1
  Dy  Dy15  1  0.93635500  0.93635500  0.56364500  1
  Mg  Mg16  1  0.57931500  0.57931500  0.57931500  1
  Mg  Mg17  1  0.57931500  0.57931500  0.26205500  1
  Mg  Mg18  1  0.57931500  0.26205500  0.57931500  1
  Mg  Mg19  1  0.26205500  0.57931500  0.57931500  1
  Ir  Ir20  1  0.14173300  0.14173300  0.14173300  1
  Ir  Ir21  1  0.14173300  0.14173300  0.57480200  1
  Ir  Ir22  1  0.14173300  0.57480200  0.14173300  1
  Ir  Ir23  1  0.57480200  0.14173300  0.14173300  1
