# generated using pymatgen
data_LaGaPt
_symmetry_space_group_name_H-M   'P 1'
_cell_length_a   4.51141600
_cell_length_b   7.24729400
_cell_length_c   8.04033500
_cell_angle_alpha   90.00000000
_cell_angle_beta   90.00000000
_cell_angle_gamma   90.00000000
_symmetry_Int_Tables_number   1
_chemical_formula_structural   LaGaPt
_chemical_formula_sum   'La4 Ga4 Pt4'
_cell_volume   262.88324020
_cell_formula_units_Z   4
loop_
 _symmetry_equiv_pos_site_id
 _symmetry_equiv_pos_as_xyz
  1  'x, y, z'
loop_
 _atom_site_type_symbol
 _atom_site_label
 _atom_site_symmetry_multiplicity
 _atom_site_fract_x
 _atom_site_fract_y
 _atom_site_fract_z
 _atom_site_occupancy
  La  La0  1  0.25000000  0.03008300  0.69012200  1
  La  La1  1  0.25000000  0.53008300  0.80987800  1
  La  La2  1  0.75000000  0.96991700  0.30987800  1
  La  La3  1  0.75000000  0.46991700  0.19012200  1
  Ga  Ga4  1  0.25000000  0.15545800  0.06880100  1
  Ga  Ga5  1  0.25000000  0.65545800  0.43119900  1
  Ga  Ga6  1  0.75000000  0.84454200  0.93119900  1
  Ga  Ga7  1  0.75000000  0.34454200  0.56880100  1
  Pt  Pt8  1  0.25000000  0.27953200  0.39201300  1
  Pt  Pt9  1  0.25000000  0.77953200  0.10798700  1
  Pt  Pt10  1  0.75000000  0.72046800  0.60798700  1
  Pt  Pt11  1  0.75000000  0.22046800  0.89201300  1
