# generated using pymatgen
data_LuCuGe
_symmetry_space_group_name_H-M   'P 1'
_cell_length_a   4.19854168
_cell_length_b   4.20047642
_cell_length_c   3.61505900
_cell_angle_alpha   90.00000000
_cell_angle_beta   90.00000000
_cell_angle_gamma   120.01081070
_symmetry_Int_Tables_number   1
_chemical_formula_structural   LuCuGe
_chemical_formula_sum   'Lu1 Cu1 Ge1'
_cell_volume   55.20719991
_cell_formula_units_Z   1
loop_
 _symmetry_equiv_pos_site_id
 _symmetry_equiv_pos_as_xyz
  1  'x, y, z'
loop_
 _atom_site_type_symbol
 _atom_site_label
 _atom_site_symmetry_multiplicity
 _atom_site_fract_x
 _atom_site_fract_y
 _atom_site_fract_z
 _atom_site_occupancy
  Lu  Lu0  1  0.99982500  0.99992100  0.00000000  1
  Cu  Cu1  1  0.33345400  0.66678200  0.50000000  1
  Ge  Ge2  1  0.66662100  0.33329700  0.50000000  1
