# generated using pymatgen
data_AlGaNi6
_symmetry_space_group_name_H-M   'P 1'
_cell_length_a   3.56926700
_cell_length_b   3.56926700
_cell_length_c   7.13199500
_cell_angle_alpha   90.00000000
_cell_angle_beta   90.00000000
_cell_angle_gamma   90.00000000
_symmetry_Int_Tables_number   1
_chemical_formula_structural   AlGaNi6
_chemical_formula_sum   'Al1 Ga1 Ni6'
_cell_volume   90.85924076
_cell_formula_units_Z   1
loop_
 _symmetry_equiv_pos_site_id
 _symmetry_equiv_pos_as_xyz
  1  'x, y, z'
loop_
 _atom_site_type_symbol
 _atom_site_label
 _atom_site_symmetry_multiplicity
 _atom_site_fract_x
 _atom_site_fract_y
 _atom_site_fract_z
 _atom_site_occupancy
  Al  Al0  1  0.00000000  0.00000000  0.00000000  1
  Ga  Ga1  1  0.00000000  0.00000000  0.50000000  1
  Ni  Ni2  1  0.50000000  0.50000000  0.00000000  1
  Ni  Ni3  1  0.50000000  0.50000000  0.50000000  1
  Ni  Ni4  1  0.50000000  0.00000000  0.24940500  1
  Ni  Ni5  1  0.50000000  0.00000000  0.75059500  1
  Ni  Ni6  1  0.00000000  0.50000000  0.24940500  1
  Ni  Ni7  1  0.00000000  0.50000000  0.75059500  1
