# generated using pymatgen
data_La2CdNi2
_symmetry_space_group_name_H-M   'P 1'
_cell_length_a   7.70226932
_cell_length_b   7.70226932
_cell_length_c   3.86805300
_cell_angle_alpha   90.00000000
_cell_angle_beta   90.00000000
_cell_angle_gamma   149.54444385
_symmetry_Int_Tables_number   1
_chemical_formula_structural   La2CdNi2
_chemical_formula_sum   'La2 Cd1 Ni2'
_cell_volume   116.31246977
_cell_formula_units_Z   1
loop_
 _symmetry_equiv_pos_site_id
 _symmetry_equiv_pos_as_xyz
  1  'x, y, z'
loop_
 _atom_site_type_symbol
 _atom_site_label
 _atom_site_symmetry_multiplicity
 _atom_site_fract_x
 _atom_site_fract_y
 _atom_site_fract_z
 _atom_site_occupancy
  La  La0  1  0.63783300  0.36216700  0.50000000  1
  La  La1  1  0.36216700  0.63783300  0.50000000  1
  Cd  Cd2  1  0.00000000  0.00000000  0.00000000  1
  Ni  Ni3  1  0.79743600  0.20256400  0.00000000  1
  Ni  Ni4  1  0.20256400  0.79743600  0.00000000  1
