# generated using pymatgen
data_SmAsPt
_symmetry_space_group_name_H-M   'P 1'
_cell_length_a   4.33180597
_cell_length_b   4.33180597
_cell_length_c   15.88872100
_cell_angle_alpha   90.00000000
_cell_angle_beta   90.00000000
_cell_angle_gamma   119.99999947
_symmetry_Int_Tables_number   1
_chemical_formula_structural   SmAsPt
_chemical_formula_sum   'Sm4 As4 Pt4'
_cell_volume   258.20078785
_cell_formula_units_Z   4
loop_
 _symmetry_equiv_pos_site_id
 _symmetry_equiv_pos_as_xyz
  1  'x, y, z'
loop_
 _atom_site_type_symbol
 _atom_site_label
 _atom_site_symmetry_multiplicity
 _atom_site_fract_x
 _atom_site_fract_y
 _atom_site_fract_z
 _atom_site_occupancy
  Sm  Sm0  1  0.00000000  0.00000000  0.50000000  1
  Sm  Sm1  1  0.00000000  0.00000000  0.00000000  1
  Sm  Sm2  1  0.00000000  0.00000000  0.25000000  1
  Sm  Sm3  1  0.00000000  0.00000000  0.75000000  1
  As  As4  1  0.33333300  0.66666700  0.88173100  1
  As  As5  1  0.66666700  0.33333300  0.11826900  1
  As  As6  1  0.66666700  0.33333300  0.38173100  1
  As  As7  1  0.33333300  0.66666700  0.61826900  1
  Pt  Pt8  1  0.33333300  0.66666700  0.36703900  1
  Pt  Pt9  1  0.66666700  0.33333300  0.63296100  1
  Pt  Pt10  1  0.66666700  0.33333300  0.86703900  1
  Pt  Pt11  1  0.33333300  0.66666700  0.13296100  1
