# generated using pymatgen
data_TmCu4Ag
_symmetry_space_group_name_H-M   'P 1'
_cell_length_a   5.01368265
_cell_length_b   5.01368265
_cell_length_c   5.01368265
_cell_angle_alpha   60.00000000
_cell_angle_beta   60.00000000
_cell_angle_gamma   60.00000000
_symmetry_Int_Tables_number   1
_chemical_formula_structural   TmCu4Ag
_chemical_formula_sum   'Tm1 Cu4 Ag1'
_cell_volume   89.11596723
_cell_formula_units_Z   1
loop_
 _symmetry_equiv_pos_site_id
 _symmetry_equiv_pos_as_xyz
  1  'x, y, z'
loop_
 _atom_site_type_symbol
 _atom_site_label
 _atom_site_symmetry_multiplicity
 _atom_site_fract_x
 _atom_site_fract_y
 _atom_site_fract_z
 _atom_site_occupancy
  Tm  Tm0  1  0.25000000  0.25000000  0.25000000  1
  Cu  Cu1  1  0.62570300  0.62570300  0.62570300  1
  Cu  Cu2  1  0.62570300  0.62570300  0.12289100  1
  Cu  Cu3  1  0.62570300  0.12289100  0.62570300  1
  Cu  Cu4  1  0.12289100  0.62570300  0.62570300  1
  Ag  Ag5  1  0.00000000  0.00000000  0.00000000  1
