# generated using pymatgen
data_Sm2SbO2
_symmetry_space_group_name_H-M   'P 1'
_cell_length_a   7.37420469
_cell_length_b   7.37420469
_cell_length_c   7.37420469
_cell_angle_alpha   148.92870861
_cell_angle_beta   148.92870861
_cell_angle_gamma   44.51625402
_symmetry_Int_Tables_number   1
_chemical_formula_structural   Sm2SbO2
_chemical_formula_sum   'Sm2 Sb1 O2'
_cell_volume   106.49264704
_cell_formula_units_Z   1
loop_
 _symmetry_equiv_pos_site_id
 _symmetry_equiv_pos_as_xyz
  1  'x, y, z'
loop_
 _atom_site_type_symbol
 _atom_site_label
 _atom_site_symmetry_multiplicity
 _atom_site_fract_x
 _atom_site_fract_y
 _atom_site_fract_z
 _atom_site_occupancy
  Sm  Sm0  1  0.66420000  0.66420000  0.00000000  1
  Sm  Sm1  1  0.33580000  0.33580000  0.00000000  1
  Sb  Sb2  1  0.00000000  0.00000000  0.00000000  1
  O  O3  1  0.75000000  0.25000000  0.50000000  1
  O  O4  1  0.25000000  0.75000000  0.50000000  1
