# generated using pymatgen
data_Sm3Sn13Ru4
_symmetry_space_group_name_H-M   'P 1'
_cell_length_a   9.82590200
_cell_length_b   9.82590200
_cell_length_c   9.82590200
_cell_angle_alpha   90.00000000
_cell_angle_beta   90.00000000
_cell_angle_gamma   90.00000000
_symmetry_Int_Tables_number   1
_chemical_formula_structural   Sm3Sn13Ru4
_chemical_formula_sum   'Sm6 Sn26 Ru8'
_cell_volume   948.67462648
_cell_formula_units_Z   2
loop_
 _symmetry_equiv_pos_site_id
 _symmetry_equiv_pos_as_xyz
  1  'x, y, z'
loop_
 _atom_site_type_symbol
 _atom_site_label
 _atom_site_symmetry_multiplicity
 _atom_site_fract_x
 _atom_site_fract_y
 _atom_site_fract_z
 _atom_site_occupancy
  Sm  Sm0  1  0.25000000  0.00000000  0.50000000  1
  Sm  Sm1  1  0.75000000  0.00000000  0.50000000  1
  Sm  Sm2  1  0.50000000  0.25000000  0.00000000  1
  Sm  Sm3  1  0.50000000  0.75000000  0.00000000  1
  Sm  Sm4  1  0.00000000  0.50000000  0.25000000  1
  Sm  Sm5  1  0.00000000  0.50000000  0.75000000  1
  Sn  Sn6  1  0.00000000  0.00000000  0.00000000  1
  Sn  Sn7  1  0.50000000  0.50000000  0.50000000  1
  Sn  Sn8  1  0.00000000  0.15532500  0.30479300  1
  Sn  Sn9  1  0.00000000  0.84467500  0.69520700  1
  Sn  Sn10  1  0.00000000  0.84467500  0.30479300  1
  Sn  Sn11  1  0.00000000  0.15532500  0.69520700  1
  Sn  Sn12  1  0.30479300  0.00000000  0.15532500  1
  Sn  Sn13  1  0.65532500  0.50000000  0.19520700  1
  Sn  Sn14  1  0.69520700  0.00000000  0.84467500  1
  Sn  Sn15  1  0.34467500  0.50000000  0.80479300  1
  Sn  Sn16  1  0.30479300  0.00000000  0.84467500  1
  Sn  Sn17  1  0.34467500  0.50000000  0.19520700  1
  Sn  Sn18  1  0.69520700  0.00000000  0.15532500  1
  Sn  Sn19  1  0.65532500  0.50000000  0.80479300  1
  Sn  Sn20  1  0.15532500  0.30479300  0.00000000  1
  Sn  Sn21  1  0.50000000  0.80479300  0.34467500  1
  Sn  Sn22  1  0.84467500  0.69520700  0.00000000  1
  Sn  Sn23  1  0.50000000  0.19520700  0.65532500  1
  Sn  Sn24  1  0.15532500  0.69520700  0.00000000  1
  Sn  Sn25  1  0.50000000  0.19520700  0.34467500  1
  Sn  Sn26  1  0.84467500  0.30479300  0.00000000  1
  Sn  Sn27  1  0.50000000  0.80479300  0.65532500  1
  Sn  Sn28  1  0.19520700  0.65532500  0.50000000  1
  Sn  Sn29  1  0.80479300  0.34467500  0.50000000  1
  Sn  Sn30  1  0.19520700  0.34467500  0.50000000  1
  Sn  Sn31  1  0.80479300  0.65532500  0.50000000  1
  Ru  Ru32  1  0.25000000  0.25000000  0.25000000  1
  Ru  Ru33  1  0.75000000  0.75000000  0.75000000  1
  Ru  Ru34  1  0.75000000  0.75000000  0.25000000  1
  Ru  Ru35  1  0.75000000  0.25000000  0.75000000  1
  Ru  Ru36  1  0.25000000  0.25000000  0.75000000  1
  Ru  Ru37  1  0.25000000  0.75000000  0.25000000  1
  Ru  Ru38  1  0.25000000  0.75000000  0.75000000  1
  Ru  Ru39  1  0.75000000  0.25000000  0.25000000  1
