# generated using pymatgen
data_Gd3BBr3
_symmetry_space_group_name_H-M   'P 1'
_cell_length_a   9.87079474
_cell_length_b   9.87079474
_cell_length_c   9.87079474
_cell_angle_alpha   109.47122063
_cell_angle_beta   109.47122063
_cell_angle_gamma   109.47122063
_symmetry_Int_Tables_number   1
_chemical_formula_structural   Gd3BBr3
_chemical_formula_sum   'Gd12 B4 Br12'
_cell_volume   740.34555314
_cell_formula_units_Z   4
loop_
 _symmetry_equiv_pos_site_id
 _symmetry_equiv_pos_as_xyz
  1  'x, y, z'
loop_
 _atom_site_type_symbol
 _atom_site_label
 _atom_site_symmetry_multiplicity
 _atom_site_fract_x
 _atom_site_fract_y
 _atom_site_fract_z
 _atom_site_occupancy
  Gd  Gd0  1  0.46046000  0.48023000  0.23023000  1
  Gd  Gd1  1  0.75000000  0.23023000  0.26977000  1
  Gd  Gd2  1  0.75000000  0.01977000  0.48023000  1
  Gd  Gd3  1  0.23023000  0.46046000  0.48023000  1
  Gd  Gd4  1  0.26977000  0.75000000  0.23023000  1
  Gd  Gd5  1  0.03954000  0.26977000  0.01977000  1
  Gd  Gd6  1  0.01977000  0.03954000  0.26977000  1
  Gd  Gd7  1  0.48023000  0.75000000  0.01977000  1
  Gd  Gd8  1  0.48023000  0.23023000  0.46046000  1
  Gd  Gd9  1  0.01977000  0.48023000  0.75000000  1
  Gd  Gd10  1  0.26977000  0.01977000  0.03954000  1
  Gd  Gd11  1  0.23023000  0.26977000  0.75000000  1
  B  B12  1  0.25000000  0.25000000  0.25000000  1
  B  B13  1  0.50000000  0.00000000  0.25000000  1
  B  B14  1  0.00000000  0.25000000  0.50000000  1
  B  B15  1  0.25000000  0.50000000  0.00000000  1
  Br  Br16  1  0.25000000  0.75791200  0.74208800  1
  Br  Br17  1  0.51582500  0.50791200  0.75791200  1
  Br  Br18  1  0.98417500  0.74208800  0.99208800  1
  Br  Br19  1  0.74208800  0.25000000  0.75791200  1
  Br  Br20  1  0.99208800  0.98417500  0.74208800  1
  Br  Br21  1  0.25000000  0.99208800  0.50791200  1
  Br  Br22  1  0.75791200  0.51582500  0.50791200  1
  Br  Br23  1  0.50791200  0.25000000  0.99208800  1
  Br  Br24  1  0.75791200  0.74208800  0.25000000  1
  Br  Br25  1  0.74208800  0.99208800  0.98417500  1
  Br  Br26  1  0.99208800  0.50791200  0.25000000  1
  Br  Br27  1  0.50791200  0.75791200  0.51582500  1
