# generated using pymatgen
data_Pr(AlAu)2
_symmetry_space_group_name_H-M   'P 1'
_cell_length_a   4.48466600
_cell_length_b   4.48466600
_cell_length_c   10.36098100
_cell_angle_alpha   90.00000000
_cell_angle_beta   90.00000000
_cell_angle_gamma   90.00000000
_symmetry_Int_Tables_number   1
_chemical_formula_structural   Pr(AlAu)2
_chemical_formula_sum   'Pr2 Al4 Au4'
_cell_volume   208.38242390
_cell_formula_units_Z   2
loop_
 _symmetry_equiv_pos_site_id
 _symmetry_equiv_pos_as_xyz
  1  'x, y, z'
loop_
 _atom_site_type_symbol
 _atom_site_label
 _atom_site_symmetry_multiplicity
 _atom_site_fract_x
 _atom_site_fract_y
 _atom_site_fract_z
 _atom_site_occupancy
  Pr  Pr0  1  0.00000000  0.50000000  0.24851500  1
  Pr  Pr1  1  0.50000000  0.00000000  0.75148500  1
  Al  Al2  1  0.00000000  0.00000000  0.50000000  1
  Al  Al3  1  0.50000000  0.50000000  0.50000000  1
  Al  Al4  1  0.00000000  0.50000000  0.87166500  1
  Al  Al5  1  0.50000000  0.00000000  0.12833500  1
  Au  Au6  1  0.00000000  0.00000000  0.00000000  1
  Au  Au7  1  0.50000000  0.50000000  0.00000000  1
  Au  Au8  1  0.00000000  0.50000000  0.62886900  1
  Au  Au9  1  0.50000000  0.00000000  0.37113100  1
