# generated using pymatgen
data_ErNi4Au
_symmetry_space_group_name_H-M   'P 1'
_cell_length_a   4.91107580
_cell_length_b   4.91107580
_cell_length_c   4.91107580
_cell_angle_alpha   60.00000000
_cell_angle_beta   60.00000000
_cell_angle_gamma   60.00000000
_symmetry_Int_Tables_number   1
_chemical_formula_structural   ErNi4Au
_chemical_formula_sum   'Er1 Ni4 Au1'
_cell_volume   83.75580434
_cell_formula_units_Z   1
loop_
 _symmetry_equiv_pos_site_id
 _symmetry_equiv_pos_as_xyz
  1  'x, y, z'
loop_
 _atom_site_type_symbol
 _atom_site_label
 _atom_site_symmetry_multiplicity
 _atom_site_fract_x
 _atom_site_fract_y
 _atom_site_fract_z
 _atom_site_occupancy
  Er  Er0  1  0.25000000  0.25000000  0.25000000  1
  Ni  Ni1  1  0.62561100  0.62561100  0.62561100  1
  Ni  Ni2  1  0.62561100  0.62561100  0.12316800  1
  Ni  Ni3  1  0.62561100  0.12316800  0.62561100  1
  Ni  Ni4  1  0.12316800  0.62561100  0.62561100  1
  Au  Au5  1  0.00000000  0.00000000  0.00000000  1
