# generated using pymatgen
data_SmZnCuP2
_symmetry_space_group_name_H-M   'P 1'
_cell_length_a   4.03488979
_cell_length_b   4.03488979
_cell_length_c   6.64595600
_cell_angle_alpha   90.00000000
_cell_angle_beta   90.00000000
_cell_angle_gamma   119.99999657
_symmetry_Int_Tables_number   1
_chemical_formula_structural   SmZnCuP2
_chemical_formula_sum   'Sm1 Zn1 Cu1 P2'
_cell_volume   93.70256129
_cell_formula_units_Z   1
loop_
 _symmetry_equiv_pos_site_id
 _symmetry_equiv_pos_as_xyz
  1  'x, y, z'
loop_
 _atom_site_type_symbol
 _atom_site_label
 _atom_site_symmetry_multiplicity
 _atom_site_fract_x
 _atom_site_fract_y
 _atom_site_fract_z
 _atom_site_occupancy
  Sm  Sm0  1  0.66666700  0.33333300  0.01485900  1
  Zn  Zn1  1  0.33333300  0.66666700  0.62493300  1
  Cu  Cu2  1  0.00000000  0.00000000  0.36184600  1
  P  P3  1  0.00000000  0.00000000  0.73897400  1
  P  P4  1  0.33333300  0.66666700  0.25938800  1
