# generated using pymatgen
data_SmYSe2
_symmetry_space_group_name_H-M   'P 1'
_cell_length_a   7.24123093
_cell_length_b   7.24123093
_cell_length_c   7.24123072
_cell_angle_alpha   32.88894197
_cell_angle_beta   32.88894197
_cell_angle_gamma   32.88894539
_symmetry_Int_Tables_number   1
_chemical_formula_structural   SmYSe2
_chemical_formula_sum   'Sm1 Y1 Se2'
_cell_volume   99.61543486
_cell_formula_units_Z   1
loop_
 _symmetry_equiv_pos_site_id
 _symmetry_equiv_pos_as_xyz
  1  'x, y, z'
loop_
 _atom_site_type_symbol
 _atom_site_label
 _atom_site_symmetry_multiplicity
 _atom_site_fract_x
 _atom_site_fract_y
 _atom_site_fract_z
 _atom_site_occupancy
  Sm  Sm0  1  0.00000000  0.00000000  0.00000000  1
  Y  Y1  1  0.50000000  0.50000000  0.50000000  1
  Se  Se2  1  0.24675300  0.24675300  0.24675300  1
  Se  Se3  1  0.75324700  0.75324700  0.75324700  1
