# generated using pymatgen
data_HoPRu2C
_symmetry_space_group_name_H-M   'P 1'
_cell_length_a   5.84883838
_cell_length_b   5.84883838
_cell_length_c   7.04578700
_cell_angle_alpha   90.00000000
_cell_angle_beta   90.00000000
_cell_angle_gamma   142.36435831
_symmetry_Int_Tables_number   1
_chemical_formula_structural   HoPRu2C
_chemical_formula_sum   'Ho2 P2 Ru4 C2'
_cell_volume   147.18125727
_cell_formula_units_Z   2
loop_
 _symmetry_equiv_pos_site_id
 _symmetry_equiv_pos_as_xyz
  1  'x, y, z'
loop_
 _atom_site_type_symbol
 _atom_site_label
 _atom_site_symmetry_multiplicity
 _atom_site_fract_x
 _atom_site_fract_y
 _atom_site_fract_z
 _atom_site_occupancy
  Ho  Ho0  1  0.54425500  0.45574500  0.25000000  1
  Ho  Ho1  1  0.45574500  0.54425500  0.75000000  1
  P  P2  1  0.26775900  0.73224100  0.25000000  1
  P  P3  1  0.73224100  0.26775900  0.75000000  1
  Ru  Ru4  1  0.83508600  0.16491400  0.05292400  1
  Ru  Ru5  1  0.16491400  0.83508600  0.94707600  1
  Ru  Ru6  1  0.16491400  0.83508600  0.55292400  1
  Ru  Ru7  1  0.83508600  0.16491400  0.44707600  1
  C  C8  1  0.00000000  0.00000000  0.00000000  1
  C  C9  1  0.00000000  0.00000000  0.50000000  1
