# generated using pymatgen
data_SmAsRuO
_symmetry_space_group_name_H-M   'P 1'
_cell_length_a   4.11847700
_cell_length_b   4.11847700
_cell_length_c   8.15481100
_cell_angle_alpha   90.00000000
_cell_angle_beta   90.00000000
_cell_angle_gamma   90.00000000
_symmetry_Int_Tables_number   1
_chemical_formula_structural   SmAsRuO
_chemical_formula_sum   'Sm2 As2 Ru2 O2'
_cell_volume   138.32070379
_cell_formula_units_Z   2
loop_
 _symmetry_equiv_pos_site_id
 _symmetry_equiv_pos_as_xyz
  1  'x, y, z'
loop_
 _atom_site_type_symbol
 _atom_site_label
 _atom_site_symmetry_multiplicity
 _atom_site_fract_x
 _atom_site_fract_y
 _atom_site_fract_z
 _atom_site_occupancy
  Sm  Sm0  1  0.00000000  0.50000000  0.63454300  1
  Sm  Sm1  1  0.50000000  0.00000000  0.36545700  1
  As  As2  1  0.00000000  0.50000000  0.16065600  1
  As  As3  1  0.50000000  0.00000000  0.83934400  1
  Ru  Ru4  1  0.00000000  0.00000000  0.00000000  1
  Ru  Ru5  1  0.50000000  0.50000000  0.00000000  1
  O  O6  1  0.00000000  0.00000000  0.50000000  1
  O  O7  1  0.50000000  0.50000000  0.50000000  1
