# generated using pymatgen
data_Cs2TcF6
_symmetry_space_group_name_H-M   'P 1'
_cell_length_a   6.36123019
_cell_length_b   6.36123019
_cell_length_c   5.15748600
_cell_angle_alpha   90.00000000
_cell_angle_beta   90.00000000
_cell_angle_gamma   120.00000199
_symmetry_Int_Tables_number   1
_chemical_formula_structural   Cs2TcF6
_chemical_formula_sum   'Cs2 Tc1 F6'
_cell_volume   180.73859576
_cell_formula_units_Z   1
loop_
 _symmetry_equiv_pos_site_id
 _symmetry_equiv_pos_as_xyz
  1  'x, y, z'
loop_
 _atom_site_type_symbol
 _atom_site_label
 _atom_site_symmetry_multiplicity
 _atom_site_fract_x
 _atom_site_fract_y
 _atom_site_fract_z
 _atom_site_occupancy
  Cs  Cs0  1  0.66666700  0.33333300  0.70143000  1
  Cs  Cs1  1  0.33333300  0.66666700  0.29857000  1
  Tc  Tc2  1  0.00000000  0.00000000  0.00000000  1
  F  F3  1  0.14940800  0.85059200  0.78818500  1
  F  F4  1  0.70118400  0.85059200  0.78818500  1
  F  F5  1  0.14940800  0.29881600  0.78818500  1
  F  F6  1  0.85059200  0.14940800  0.21181500  1
  F  F7  1  0.29881600  0.14940800  0.21181500  1
  F  F8  1  0.85059200  0.70118400  0.21181500  1
