# generated using pymatgen
data_Pr3(GaNi3)2
_symmetry_space_group_name_H-M   'P 1'
_cell_length_a   7.85494221
_cell_length_b   7.85494221
_cell_length_c   7.85494221
_cell_angle_alpha   109.47122063
_cell_angle_beta   109.47122063
_cell_angle_gamma   109.47122063
_symmetry_Int_Tables_number   1
_chemical_formula_structural   Pr3(GaNi3)2
_chemical_formula_sum   'Pr6 Ga4 Ni12'
_cell_volume   373.08440177
_cell_formula_units_Z   2
loop_
 _symmetry_equiv_pos_site_id
 _symmetry_equiv_pos_as_xyz
  1  'x, y, z'
loop_
 _atom_site_type_symbol
 _atom_site_label
 _atom_site_symmetry_multiplicity
 _atom_site_fract_x
 _atom_site_fract_y
 _atom_site_fract_z
 _atom_site_occupancy
  Pr  Pr0  1  0.71243700  0.71243700  0.00000000  1
  Pr  Pr1  1  0.28756300  0.00000000  0.28756300  1
  Pr  Pr2  1  0.00000000  0.28756300  0.28756300  1
  Pr  Pr3  1  0.28756300  0.28756300  0.00000000  1
  Pr  Pr4  1  0.71243700  0.00000000  0.71243700  1
  Pr  Pr5  1  0.00000000  0.71243700  0.71243700  1
  Ga  Ga6  1  0.00000000  0.00000000  0.50000000  1
  Ga  Ga7  1  0.00000000  0.50000000  0.00000000  1
  Ga  Ga8  1  0.50000000  0.00000000  0.00000000  1
  Ga  Ga9  1  0.50000000  0.50000000  0.50000000  1
  Ni  Ni10  1  0.33707100  0.33707100  0.67414100  1
  Ni  Ni11  1  0.66292900  0.00000000  0.33707100  1
  Ni  Ni12  1  0.00000000  0.66292900  0.33707100  1
  Ni  Ni13  1  0.66292900  0.33707100  0.00000000  1
  Ni  Ni14  1  0.33707100  0.67414100  0.33707100  1
  Ni  Ni15  1  0.00000000  0.33707100  0.66292900  1
  Ni  Ni16  1  0.33707100  0.66292900  0.00000000  1
  Ni  Ni17  1  0.33707100  0.00000000  0.66292900  1
  Ni  Ni18  1  0.67414100  0.33707100  0.33707100  1
  Ni  Ni19  1  0.66292900  0.66292900  0.32585900  1
  Ni  Ni20  1  0.66292900  0.32585900  0.66292900  1
  Ni  Ni21  1  0.32585900  0.66292900  0.66292900  1
