# generated using pymatgen
data_Cd(CuSe)2
_symmetry_space_group_name_H-M   'P 1'
_cell_length_a   4.01566620
_cell_length_b   4.01566620
_cell_length_c   6.94995200
_cell_angle_alpha   90.00000000
_cell_angle_beta   90.00000000
_cell_angle_gamma   120.00000329
_symmetry_Int_Tables_number   1
_chemical_formula_structural   Cd(CuSe)2
_chemical_formula_sum   'Cd1 Cu2 Se2'
_cell_volume   97.05717195
_cell_formula_units_Z   1
loop_
 _symmetry_equiv_pos_site_id
 _symmetry_equiv_pos_as_xyz
  1  'x, y, z'
loop_
 _atom_site_type_symbol
 _atom_site_label
 _atom_site_symmetry_multiplicity
 _atom_site_fract_x
 _atom_site_fract_y
 _atom_site_fract_z
 _atom_site_occupancy
  Cd  Cd0  1  0.00000000  0.00000000  0.00000000  1
  Cu  Cu1  1  0.66666700  0.33333300  0.59519100  1
  Cu  Cu2  1  0.33333300  0.66666700  0.40480900  1
  Se  Se3  1  0.66666700  0.33333300  0.24514900  1
  Se  Se4  1  0.33333300  0.66666700  0.75485100  1
