# generated using pymatgen
data_RbBrO3
_symmetry_space_group_name_H-M   'P 1'
_cell_length_a   4.62563472
_cell_length_b   4.62563472
_cell_length_c   4.62563451
_cell_angle_alpha   85.85246944
_cell_angle_beta   85.85246944
_cell_angle_gamma   85.85246012
_symmetry_Int_Tables_number   1
_chemical_formula_structural   RbBrO3
_chemical_formula_sum   'Rb1 Br1 O3'
_cell_volume   98.23046476
_cell_formula_units_Z   1
loop_
 _symmetry_equiv_pos_site_id
 _symmetry_equiv_pos_as_xyz
  1  'x, y, z'
loop_
 _atom_site_type_symbol
 _atom_site_label
 _atom_site_symmetry_multiplicity
 _atom_site_fract_x
 _atom_site_fract_y
 _atom_site_fract_z
 _atom_site_occupancy
  Rb  Rb0  1  0.00971400  0.00971400  0.00971400  1
  Br  Br1  1  0.52866300  0.52866300  0.52866300  1
  O  O2  1  0.46690500  0.89185200  0.46690500  1
  O  O3  1  0.89185200  0.46690500  0.46690500  1
  O  O4  1  0.46690500  0.46690500  0.89185200  1
